
New Transformer.trafo3
! ENABLED
! NPhases = 3
! Nconds = 4
! Nterms = 2
! Yorder = 8
! NodeRef = "1 2 3 0 4 5 6 0 "
! Terminal Status: [C C C C C C C C ]
! Terminal Bus Ref: [1 1 1 1 2 2 2 2 ]

! YPrim (G matrix)
!  0.0004194087611 |             0 |             0 | -0.0004194087611 | -0.0151891432 |  0.0151891432 |             0 |             0 |
!              0 | 0.0004194087611 |             0 | -0.0004194087611 |             0 | -0.0151891432 |  0.0151891432 |             0 |
!              0 |             0 | 0.0004194087611 | -0.0004194087611 |  0.0151891432 |             0 | -0.0151891432 |             0 |
!  -0.0004194087611 | -0.0004194087611 | -0.0004194087611 | 0.001258226283 |             0 |             0 |             0 |             0 |
!  -0.0151891432 |             0 |  0.0151891432 |             0 |   1.100374717 | -0.5501873586 | -0.5501873586 |             0 |
!   0.0151891432 | -0.0151891432 |             0 |             0 | -0.5501873586 |   1.100374717 | -0.5501873586 |             0 |
!              0 |  0.0151891432 | -0.0151891432 |             0 | -0.5501873586 | -0.5501873586 |   1.100374717 |             0 |
!              0 |             0 |             0 |             0 |             0 |             0 |             0 |             0 |
! YPrim (B Matrix) = 
!  -0.01048521929 |             0 |             0 | 0.01048521903 |    0.37972858 |   -0.37972858 |             0 |             0 |
!              0 | -0.01048521929 |             0 | 0.01048521903 |             0 |    0.37972858 |   -0.37972858 |             0 |
!              0 |             0 | -0.01048521929 | 0.01048521903 |   -0.37972858 |             0 |    0.37972858 |             0 |
!  0.01048521903 | 0.01048521903 | 0.01048521903 | -0.03145565814 |             0 |             0 |             0 |             0 |
!     0.37972858 |             0 |   -0.37972858 |             0 |  -27.53175154 |   13.76587543 |   13.76587543 |             0 |
!    -0.37972858 |    0.37972858 |             0 |             0 |   13.76587543 |  -27.53175154 |   13.76587543 |             0 |
!              0 |   -0.37972858 |    0.37972858 |             0 |   13.76587543 |   13.76587543 |  -27.53175154 |             0 |
!              0 |             0 |             0 |             0 |             0 |             0 |             0 |             0 |
~ NumWindings=2
~ phases=3
~ Wdg=1 bus=sourcebus
~ conn=wye
~ kv=13.80
~ kVA=100.0
~ tap=1.000
~ %R=0.10
~ RdcOhms=0.53958
~ rneut=-1.000
~ xneut=0.000
~ Wdg=2 bus=b
~ conn=delta
~ kv=0.22
~ kVA=100.0
~ tap=1.000
~ %R=0.10
~ RdcOhms=0.0004114
~ rneut=-1.000
~ xneut=0.000
~ XHL=5.000
~ XHT=35.000
~ XLT=30.000
~ X12=5.000
~ X13=35.000
~ X23=30.000
~ Xscmatrix= "5.00 "
~ NormMAxHkVA=110
~ EmergMAxHkVA=150
~ thermal=2.0
~ n=0.8
~ m=0.8
~ flrise=65
~ hsrise=15
~ %loadloss=0
~ %noloadloss=0
~ normhkVA=110
~ emerghkVA=150
~ sub=n
~ MaxTap=1.1
~ MinTap=0.9
~ NumTaps=32
~ subname=
~ %imag=2
~ ppm_antifloat=1
~ %Rs=[0.1, 0.1, ]
~ bank=
~ XfmrCode=
~ XRConst=NO
~ X12=5
~ X13=35
~ X23=30
~ LeadLag=Lag
~ WdgCurrents=0.08359617, (-89.568), 2.54241E-005, (150.02), 0.08359616, (150.43), 2.512263E-005, (30.382), 0.08359617, (30.432), 2.51363E-005, (-90.396), 
~ Core=shell
~ RdcOhms=0.0004114
~ Seasons=1
~ Ratings=[1100,]
~ normamps=4.6021
~ emergamps=6.2755
~ faultrate=0.007
~ pctperm=100
~ repair=36
~ basefreq=60
~ enabled=true
~ like=

ZB:
6E-008 
1.5E-006 

ZB: (inverted)
26624.0682 
-665601.7039 

Y_OneVolt
26624.0682 
-26624.0682 26624.0682 
-665601.7039 
665601.7039 -665601.7039 

Y_Terminal
0.0004 
-0.0004 0.0004 
-0.0152 0.0152 0.5501 
0.0152 -0.0152 -0.5501 0.5501 
-0.0105 
0.0105 -0.0105 
0.3797 -0.3797 -13.7521 
-0.3797 0.3797 13.7521 -13.7521 

TermRef= 1 4 5 6 2 4 6 7 3 4 7 5 
